8500-Node/IEEE8500_Power_elem_kVA.txt

CIRCUIT ELEMENT POWER FLOW

(Power Flow into element from indicated Bus)

Power Delivery Elements

  Bus                Phase     kW     +j   kvar         kVA         PF

ELEMENT = "Vsource.SOURCE"
SOURCEBUS                1     -4122.5 +j   -627.1     4170.0       0.9886
SOURCEBUS                2     -3772.7 +j   -473.5     3802.3       0.9922
SOURCEBUS                3     -4080.6 +j   -247.3     4088.1       0.9982
   TERMINAL TOTAL ............-11975.8 +j  -1348.0    12051.5       0.9937
SOURCEBUS                0         0.0 +j      0.0        0.0       1.0000
SOURCEBUS                0         0.0 +j      0.0        0.0       1.0000
SOURCEBUS                0         0.0 +j      0.0        0.0       1.0000
   TERMINAL TOTAL ............     0.0 +j      0.0        0.0       1.0000

ELEMENT = "Line.HVMV_SUB_CONNECTOR"
_HVMV_SUB_LSB            1      4134.3 +j    209.9     4139.6       0.9987
_HVMV_SUB_LSB            2      4002.6 +j    339.9     4017.0       0.9964
_HVMV_SUB_LSB            3      3774.3 +j    -97.2     3775.5      -0.9997
   TERMINAL TOTAL ............ 11911.2 +j    452.6    11919.8       0.9993
HVMV_SUB_48332           1     -4134.3 +j   -209.9     4139.6       0.9987
HVMV_SUB_48332           2     -4002.6 +j   -339.9     4017.0       0.9964
HVMV_SUB_48332           3     -3774.3 +j     97.2     3775.5      -0.9997
   TERMINAL TOTAL ............-11911.2 +j   -452.6    11919.8       0.9993

ELEMENT = "Line.LN5502549-1"
M1009763                 2        13.8 +j      3.7       14.3       0.9662
   TERMINAL TOTAL ............    13.8 +j      3.7       14.3       0.9662
L2673322                 2       -13.8 +j     -3.7       14.3       0.9662
   TERMINAL TOTAL ............   -13.8 +j     -3.7       14.3       0.9662

ELEMENT = "Line.LN6259988-1"
M1069148                 3        10.3 +j      2.7       10.7       0.9664
   TERMINAL TOTAL ............    10.3 +j      2.7       10.7       0.9664
L2673309                 3       -10.3 +j     -2.8       10.7       0.9661
   TERMINAL TOTAL ............   -10.3 +j     -2.8       10.7       0.9661

ELEMENT = "Line.LN6077796-1"
M1069588                 2        11.8 +j      3.2       12.3       0.9663
   TERMINAL TOTAL ............    11.8 +j      3.2       12.3       0.9663
L2804270                 2       -11.8 +j     -3.2       12.3       0.9663
   TERMINAL TOTAL ............   -11.8 +j     -3.2       12.3       0.9663

ELEMENT = "Line.LN5835135-2"
M3036164                 2       114.9 +j     30.3      118.8       0.9669
   TERMINAL TOTAL ............   114.9 +j     30.3      118.8       0.9669
L2935553                 2      -114.8 +j    -30.3      118.8       0.9669
   TERMINAL TOTAL ............  -114.8 +j    -30.3      118.8       0.9669

ELEMENT = "Line.LN5896826-1"
M1209749                 2         5.9 +j      1.6        6.1       0.9671
   TERMINAL TOTAL ............     5.9 +j      1.6        6.1       0.9671
L2748840                 2        -5.9 +j     -1.6        6.1       0.9660
   TERMINAL TOTAL ............    -5.9 +j     -1.6        6.1       0.9660

ELEMENT = "Line.LN5714038-1"
M1108264                 2        15.8 +j      4.1       16.3       0.9680
   TERMINAL TOTAL ............    15.8 +j      4.1       16.3       0.9680
M1108263                 2       -15.8 +j     -4.1       16.3       0.9678
   TERMINAL TOTAL ............   -15.8 +j     -4.1       16.3       0.9678

ELEMENT = "Line.LN5653457-1"
L3085398                 1       140.5 +j     37.1      145.3       0.9668
L3085398                 2       298.2 +j     79.7      308.7       0.9661
L3085398                 3       114.0 +j     30.0      117.8       0.9670
   TERMINAL TOTAL ............   552.7 +j    146.8      571.8       0.9665
M1026891                 1      -140.4 +j    -37.1      145.3       0.9668
M1026891                 2      -298.0 +j    -79.6      308.4       0.9662
M1026891                 3      -113.9 +j    -30.0      117.8       0.9669
   TERMINAL TOTAL ............  -552.3 +j   -146.7      571.5       0.9665

ELEMENT = "Line.LN5835173-1"
L3216367                 1       202.2 +j     53.0      209.0       0.9673
L3216367                 2       446.6 +j    121.3      462.8       0.9650
L3216367                 3       340.5 +j     91.4      352.5       0.9658
   TERMINAL TOTAL ............   989.3 +j    265.7     1024.3       0.9658
M1069468                 1      -202.1 +j    -53.0      209.0       0.9673
M1069468                 2      -446.5 +j   -121.3      462.7       0.9651
M1069468                 3      -340.5 +j    -91.3      352.5       0.9658
   TERMINAL TOTAL ............  -989.1 +j   -265.6     1024.1       0.9658

ELEMENT = "Line.LN6321415-1"
M1142800                 2         9.9 +j      2.6       10.2       0.9679
   TERMINAL TOTAL ............     9.9 +j      2.6       10.2       0.9679
M1142799                 2        -9.9 +j     -2.6       10.2       0.9677
   TERMINAL TOTAL ............    -9.9 +j     -2.6       10.2       0.9677

ELEMENT = "Line.LN5565092-1"
M1047592                 3        15.5 +j      4.1       16.1       0.9663
   TERMINAL TOTAL ............    15.5 +j      4.1       16.1       0.9663
P827512                  3       -15.5 +j     -4.1       16.1       0.9663
   TERMINAL TOTAL ............   -15.5 +j     -4.1       16.1       0.9663

ELEMENT = "Line.LN6073648-1"
M1047339                 1        21.6 +j      5.7       22.3       0.9665
   TERMINAL TOTAL ............    21.6 +j      5.7       22.3       0.9665
P895104                  1       -21.6 +j     -5.7       22.3       0.9665
   TERMINAL TOTAL ............   -21.6 +j     -5.7       22.3       0.9665

ELEMENT = "Line.LN5774457-1"
M1026915                 1       210.8 +j     56.0      218.1       0.9664
M1026915                 2       170.4 +j     44.9      176.3       0.9670
M1026915                 3       163.8 +j     43.3      169.5       0.9668
   TERMINAL TOTAL ............   545.1 +j    144.3      563.8       0.9667
M1026920                 1      -210.7 +j    -56.0      218.1       0.9664
M1026920                 2      -170.4 +j    -44.9      176.2       0.9670
M1026920                 3      -163.8 +j    -43.3      169.5       0.9668
   TERMINAL TOTAL ............  -545.0 +j   -144.2      563.7       0.9667

ELEMENT = "Line.LN5534966-3"
N1138596                 1        78.4 +j     20.9       81.1       0.9662
   TERMINAL TOTAL ............    78.4 +j     20.9       81.1       0.9662
L3254207                 1       -78.3 +j    -20.9       81.1       0.9662
   TERMINAL TOTAL ............   -78.3 +j    -20.9       81.1       0.9662

ELEMENT = "Line.LN5859996-1"
M1069464                 2        19.8 +j      5.3       20.5       0.9663
   TERMINAL TOTAL ............    19.8 +j      5.3       20.5       0.9663
P873787                  2       -19.8 +j     -5.3       20.5       0.9662
   TERMINAL TOTAL ............   -19.8 +j     -5.3       20.5       0.9662

ELEMENT = "Line.LN6138610-2"
N1144665                 1       851.1 +j    227.6      881.0       0.9661
N1144665                 2       651.5 +j    177.9      675.3       0.9647
N1144665                 3       744.7 +j    201.4      771.5       0.9653
   TERMINAL TOTAL ............  2247.3 +j    606.9     2327.8       0.9654
M1047515                 1      -850.5 +j   -227.4      880.4       0.9661
M1047515                 2      -651.1 +j   -177.8      675.0       0.9647
M1047515                 3      -744.3 +j   -201.2      771.0       0.9653
   TERMINAL TOTAL ............ -2245.9 +j   -606.4     2326.3       0.9654

ELEMENT = "Line.LN6258435-3"
N1137002                 1        18.0 +j      4.8       18.6       0.9662
   TERMINAL TOTAL ............    18.0 +j      4.8       18.6       0.9662
M1047707                 1       -18.0 +j     -4.8       18.6       0.9660
   TERMINAL TOTAL ............   -18.0 +j     -4.8       18.6       0.9660

ELEMENT = "Line.LN5804790-1"
L2729406                 3        10.3 +j      2.7       10.7       0.9667
   TERMINAL TOTAL ............    10.3 +j      2.7       10.7       0.9667
L2897768                 3       -10.3 +j     -2.8       10.7       0.9662
   TERMINAL TOTAL ............   -10.3 +j     -2.8       10.7       0.9662

ELEMENT = "Line.LN6900591-14"
L3649301                 1        32.4 +j      8.7       33.6       0.9661
   TERMINAL TOTAL ............    32.4 +j      8.7       33.6       0.9661
L3649302                 1       -32.4 +j     -8.7       33.6       0.9661
   TERMINAL TOTAL ............   -32.4 +j     -8.7       33.6       0.9661

ELEMENT = "Line.LN6409873-1"
L2970842                 2        76.2 +j     19.8       78.7       0.9678
   TERMINAL TOTAL ............    76.2 +j     19.8       78.7       0.9678
M1089113                 2       -76.2 +j    -19.8       78.7       0.9678
   TERMINAL TOTAL ............   -76.2 +j    -19.8       78.7       0.9678

ELEMENT = "Line.LN6014135-1"
M1047312                 1        67.5 +j     18.0       69.9       0.9663
   TERMINAL TOTAL ............    67.5 +j     18.0       69.9       0.9663
P893163                  1       -67.5 +j    -18.0       69.9       0.9663
   TERMINAL TOTAL ............   -67.5 +j    -18.0       69.9       0.9663

ELEMENT = "Line.LN6077784-1"
L2822871                 1       407.8 +j    108.5      422.0       0.9664
L2822871                 2       495.4 +j    133.2      513.0       0.9657
L2822871                 3       305.0 +j     80.8      315.5       0.9667
   TERMINAL TOTAL ............  1208.2 +j    322.5     1250.5       0.9662
M1026872                 1      -407.7 +j   -108.4      421.9       0.9664
M1026872                 2      -495.2 +j   -133.1      512.8       0.9658
M1026872                 3      -304.9 +j    -80.7      315.4       0.9667
   TERMINAL TOTAL ............ -1207.9 +j   -322.2     1250.1       0.9662

ELEMENT = "Line.LN5744338-1"
M1026312                 2       185.7 +j     49.5      192.2       0.9663
   TERMINAL TOTAL ............   185.7 +j     49.5      192.2       0.9663
L2973163                 2      -185.6 +j    -49.4      192.1       0.9663
   TERMINAL TOTAL ............  -185.6 +j    -49.4      192.1       0.9663

ELEMENT = "Line.LN6991381-4"
L3728038                 1        36.1 +j      9.6       37.3       0.9661
   TERMINAL TOTAL ............    36.1 +j      9.6       37.3       0.9661
L3728039                 1       -36.1 +j     -9.6       37.3       0.9660
   TERMINAL TOTAL ............   -36.1 +j     -9.6       37.3       0.9660

ELEMENT = "Line.LN5774480-1"
M1069567                 2       224.3 +j     59.8      232.1       0.9663
   TERMINAL TOTAL ............   224.3 +j     59.8      232.1       0.9663
M1069582                 2      -224.0 +j    -59.7      231.8       0.9663
   TERMINAL TOTAL ............  -224.0 +j    -59.7      231.8       0.9663

ELEMENT = "Line.LN5986938-3"
N1140830                 1        37.9 +j     10.0       39.2       0.9670
   TERMINAL TOTAL ............    37.9 +j     10.0       39.2       0.9670
L3216351                 1       -37.9 +j    -10.0       39.2       0.9670
   TERMINAL TOTAL ............   -37.9 +j    -10.0       39.2       0.9670

ELEMENT = "Line.LN5894230-1"
L2952007                 3        10.3 +j      2.7       10.7       0.9665
   TERMINAL TOTAL ............    10.3 +j      2.7       10.7       0.9665
L2861158                 3       -10.3 +j     -2.8       10.7       0.9661
   TERMINAL TOTAL ............   -10.3 +j     -2.8       10.7       0.9661

ELEMENT = "Line.LN5683858-3"
N1140827                 1        18.1 +j      4.8       18.7       0.9662
N1140827                 2        29.7 +j      7.9       30.8       0.9664
N1140827                 3        20.8 +j      5.5       21.5       0.9664
   TERMINAL TOTAL ............    68.6 +j     18.3       71.0       0.9664
M1026726                 1       -18.1 +j     -4.8       18.7       0.9662
M1026726                 2       -29.7 +j     -7.9       30.8       0.9663
M1026726                 3       -20.8 +j     -5.5       21.5       0.9664
   TERMINAL TOTAL ............   -68.6 +j    -18.3       71.0       0.9663

ELEMENT = "Line.LN5920279-5"
L2730106                 1      2355.6 +j    334.4     2379.2       0.9901
L2730106                 2      2274.4 +j    363.6     2303.3       0.9875
L2730106                 3      1676.9 +j     64.5     1678.1       0.9993
   TERMINAL TOTAL ............  6306.9 +j    762.5     6352.8       0.9928
N1142099                 1     -2354.9 +j   -333.4     2378.3       0.9901
N1142099                 2     -2274.2 +j   -362.5     2302.9       0.9875
N1142099                 3     -1676.9 +j    -64.2     1678.1       0.9993
   TERMINAL TOTAL ............ -6305.9 +j   -760.1     6351.5       0.9928

ELEMENT = "Line.LN6439600-1"
M1026658                 1         9.0 +j      2.4        9.3       0.9663
   TERMINAL TOTAL ............     9.0 +j      2.4        9.3       0.9663
L3172805                 1        -9.0 +j     -2.4        9.3       0.9660
   TERMINAL TOTAL ............    -9.0 +j     -2.4        9.3       0.9660

ELEMENT = "Line.LN5589097-1"
P895112                  1        13.5 +j      3.6       14.0       0.9661
   TERMINAL TOTAL ............    13.5 +j      3.6       14.0       0.9661
L3048962                 1       -13.5 +j     -3.6       14.0       0.9660
   TERMINAL TOTAL ............   -13.5 +j     -3.6       14.0       0.9660

ELEMENT = "Line.LN5651975-1"
L2991914                 1       436.8 +j    117.5      452.3       0.9656
L2991914                 2       106.3 +j     27.6      109.8       0.9680
L2991914                 3       237.8 +j     62.3      245.9       0.9673
   TERMINAL TOTAL ............   780.9 +j    207.4      808.0       0.9665
M1047503                 1      -436.6 +j   -117.4      452.1       0.9657
M1047503                 2      -106.3 +j    -27.6      109.8       0.9679
M1047503                 3      -237.8 +j    -62.3      245.8       0.9673
   TERMINAL TOTAL ............  -780.6 +j   -207.4      807.7       0.9665

ELEMENT = "Line.LN5865236-1"
M1047751                 1        18.0 +j      4.8       18.6       0.9662
   TERMINAL TOTAL ............    18.0 +j      4.8       18.6       0.9662
L2973154                 1       -18.0 +j     -4.8       18.6       0.9662
   TERMINAL TOTAL ............   -18.0 +j     -4.8       18.6       0.9662

ELEMENT = "Line.LN5593232-1"
L3010565                 3        10.3 +j      2.7       10.7       0.9665
   TERMINAL TOTAL ............    10.3 +j      2.7       10.7       0.9665
L2897775                 3       -10.3 +j     -2.8       10.7       0.9661
   TERMINAL TOTAL ............   -10.3 +j     -2.8       10.7       0.9661

ELEMENT = "Line.LN5740283-1"
M1125955                 3        12.4 +j      3.3       12.8       0.9663
   TERMINAL TOTAL ............    12.4 +j      3.3       12.8       0.9663
M1125957                 3       -12.4 +j     -3.3       12.8       0.9663
   TERMINAL TOTAL ............   -12.4 +j     -3.3       12.8       0.9663

ELEMENT = "Line.LN6106559-1"
M1069640                 2        27.6 +j      7.3       28.6       0.9665
   TERMINAL TOTAL ............    27.6 +j      7.3       28.6       0.9665
L2804269                 2       -27.6 +j     -7.4       28.6       0.9664
   TERMINAL TOTAL ............   -27.6 +j     -7.4       28.6       0.9664

ELEMENT = "Line.LN5714056-3"
M1026702                 1       361.2 +j     96.0      373.8       0.9664
M1026702                 2        81.4 +j     21.3       84.2       0.9675
M1026702                 3       180.0 +j     47.5      186.2       0.9669
   TERMINAL TOTAL ............   622.6 +j    164.8      644.1       0.9667
N1139551                 1      -360.7 +j    -95.8      373.2       0.9665
N1139551                 2       -81.4 +j    -21.3       84.2       0.9674
N1139551                 3      -179.8 +j    -47.5      186.0       0.9668
   TERMINAL TOTAL ............  -621.9 +j   -164.6      643.4       0.9667

ELEMENT = "Line.LN5985355-3"
N1136355                 2       393.4 +j    105.2      407.2       0.9661
   TERMINAL TOTAL ............   393.4 +j    105.2      407.2       0.9661
L2783231                 2      -393.0 +j   -105.0      406.8       0.9661
   TERMINAL TOTAL ............  -393.0 +j   -105.0      406.8       0.9661

ELEMENT = "Line.LN5531956-1"
L2748143                 1         9.0 +j      2.4        9.3       0.9661
   TERMINAL TOTAL ............     9.0 +j      2.4        9.3       0.9661
L3251854                 1        -9.0 +j     -2.4        9.3       0.9659
   TERMINAL TOTAL ............    -9.0 +j     -2.4        9.3       0.9659

ELEMENT = "Line.LN5650048-1"
M1069610                 2         9.9 +j      2.6       10.2       0.9665
   TERMINAL TOTAL ............     9.9 +j      2.6       10.2       0.9665
M1069600                 2        -9.9 +j     -2.6       10.2       0.9663
   TERMINAL TOTAL ............    -9.9 +j     -2.6       10.2       0.9663

ELEMENT = "Line.LN6290203-1"
M1069424                 1       155.1 +j     40.7      160.4       0.9673
M1069424                 2       383.6 +j    103.6      397.3       0.9654
M1069424                 3       278.1 +j     74.1      287.8       0.9663
   TERMINAL TOTAL ............   816.8 +j    218.4      845.5       0.9661
L2935549                 1      -155.1 +j    -40.7      160.3       0.9672
L2935549                 2      -383.4 +j   -103.5      397.1       0.9655
L2935549                 3      -278.1 +j    -74.0      287.8       0.9663
   TERMINAL TOTAL ............  -816.6 +j   -218.2      845.2       0.9661

ELEMENT = "Line.LN6134414-1"
P895089                  3        20.7 +j      5.5       21.4       0.9665
   TERMINAL TOTAL ............    20.7 +j      5.5       21.4       0.9665
L3235242                 3       -20.7 +j     -5.5       21.4       0.9665
   TERMINAL TOTAL ............   -20.7 +j     -5.5       21.4       0.9665

ELEMENT = "Line.LN6259998-2"
M1026795                 3        12.4 +j      3.3       12.8       0.9663
   TERMINAL TOTAL ............    12.4 +j      3.3       12.8       0.9663
N1140522                 3       -12.4 +j     -3.3       12.8       0.9662
   TERMINAL TOTAL ............   -12.4 +j     -3.3       12.8       0.9662

ELEMENT = "Line.LN6078767-1"
L3030199                 1       758.2 +j   -108.3      765.9      -0.9900
L3030199                 2       908.3 +j    -52.3      909.8      -0.9983
L3030199                 3      1156.3 +j      0.7     1156.3       1.0000
   TERMINAL TOTAL ............  2822.8 +j   -159.9     2827.3      -0.9984
M1125934                 1      -758.2 +j    108.4      765.9      -0.9899
M1125934                 2      -908.2 +j     52.4      909.7      -0.9983
M1125934                 3     -1156.2 +j     -0.3     1156.2       1.0000
   TERMINAL TOTAL ............ -2822.6 +j    160.5     2827.1      -0.9984

ELEMENT = "Line.LN6017300-1"
M1069189                 3         6.2 +j      1.6        6.4       0.9665
   TERMINAL TOTAL ............     6.2 +j      1.6        6.4       0.9665
L2860487                 3        -6.2 +j     -1.7        6.4       0.9660
   TERMINAL TOTAL ............    -6.2 +j     -1.7        6.4       0.9660

ELEMENT = "Line.LN8979257-2"
221-312488               1         9.0 +j      2.3        9.3       0.9676
221-312488               2         9.9 +j      2.6       10.2       0.9676
221-312488               3        10.3 +j      2.7       10.7       0.9676
   TERMINAL TOTAL ............    29.2 +j      7.6       30.2       0.9676
M1089183                 1        -9.0 +j     -2.4        9.3       0.9673
M1089183                 2        -9.9 +j     -2.6       10.2       0.9673
M1089183                 3       -10.3 +j     -2.7       10.7       0.9673
   TERMINAL TOTAL ............   -29.2 +j     -7.7       30.2       0.9673

ELEMENT = "Line.LN81048109-1"
M1108464                 2        30.0 +j      7.8       31.0       0.9676
   TERMINAL TOTAL ............    30.0 +j      7.8       31.0       0.9676
L3102286                 2       -30.0 +j     -7.9       31.0       0.9672
   TERMINAL TOTAL ............   -30.0 +j     -7.9       31.0       0.9672

ELEMENT = "Line.293471"
F739845                  1         9.0 +j      2.4        9.3       0.9661
F739845                  2         9.9 +j      2.6       10.2       0.9663
F739845                  3        10.3 +j      2.8       10.7       0.9662
   TERMINAL TOTAL ............    29.2 +j      7.8       30.2       0.9662
293471                   1        -9.0 +j     -2.4        9.3       0.9659
293471                   2        -9.9 +j     -2.6       10.2       0.9661
293471                   3       -10.3 +j     -2.8       10.7       0.9661
   TERMINAL TOTAL ............   -29.2 +j     -7.8       30.2       0.9661

ELEMENT = "Line.LN5534965-2"
P827499                  1         9.0 +j      2.4        9.3       0.9660
   TERMINAL TOTAL ............     9.0 +j      2.4        9.3       0.9660
N1139254                 1        -9.0 +j     -2.4        9.3       0.9660
   TERMINAL TOTAL ............    -9.0 +j     -2.4        9.3       0.9660

ELEMENT = "Line.LN5655683-1"
M1026657                 1       141.8 +j     37.7      146.7       0.9665
   TERMINAL TOTAL ............   141.8 +j     37.7      146.7       0.9665
M1026656                 1      -141.8 +j    -37.7      146.7       0.9665
   TERMINAL TOTAL ............  -141.8 +j    -37.7      146.7       0.9665

ELEMENT = "Line.LN5686247-1"
M1108299                 2        13.8 +j      3.7       14.3       0.9668
   TERMINAL TOTAL ............    13.8 +j      3.7       14.3       0.9668
M1108300                 2       -13.8 +j     -3.7       14.3       0.9667
   TERMINAL TOTAL ............   -13.8 +j     -3.7       14.3       0.9667

ELEMENT = "Line.LN6048642-1"
L3198355                 2         0.0 +j     -0.0        0.0      -0.0000
   TERMINAL TOTAL ............     0.0 +j     -0.0        0.0      -0.0000
L2805037                 2        -0.0 +j     -0.0        0.0       0.9358
   TERMINAL TOTAL ............    -0.0 +j     -0.0        0.0       0.9358

ELEMENT = "Line.LN5928544-3"
N1137994                 3       103.5 +j     27.5      107.1       0.9665
   TERMINAL TOTAL ............   103.5 +j     27.5      107.1       0.9665
M1069484                 3      -103.5 +j    -27.5      107.1       0.9665
   TERMINAL TOTAL ............  -103.5 +j    -27.5      107.1       0.9665

ELEMENT = "Line.LN6108172-1"
L2860504                 1        18.0 +j      4.8       18.6       0.9664
   TERMINAL TOTAL ............    18.0 +j      4.8       18.6       0.9664
L2860493                 1       -18.0 +j     -4.8       18.6       0.9661
   TERMINAL TOTAL ............   -18.0 +j     -4.8       18.6       0.9661

ELEMENT = "Line.LN5532754-1"
M1026783                 1       400.8 +j    107.3      414.9       0.9660
M1026783                 2       106.2 +j     27.7      109.8       0.9676
M1026783                 3       197.7 +j     51.8      204.4       0.9673
   TERMINAL TOTAL ............   704.7 +j    186.8      729.0       0.9666
M1026780                 1      -400.7 +j   -107.2      414.8       0.9660
M1026780                 2      -106.2 +j    -27.7      109.8       0.9676
M1026780                 3      -197.6 +j    -51.8      204.3       0.9673
   TERMINAL TOTAL ............  -704.6 +j   -186.8      728.9       0.9666

ELEMENT = "Line.LN5591834-1"
P895111                  3        26.8 +j      7.1       27.8       0.9667
   TERMINAL TOTAL ............    26.8 +j      7.1       27.8       0.9667
L2895496                 3       -26.8 +j     -7.1       27.8       0.9666
   TERMINAL TOTAL ............   -26.8 +j     -7.1       27.8       0.9666

ELEMENT = "Line.LN6347196-2"
N1140819                 1       194.8 +j     51.6      201.5       0.9667
N1140819                 2        75.5 +j     19.8       78.0       0.9674
N1140819                 3       179.6 +j     47.5      185.8       0.9668
   TERMINAL TOTAL ............   449.9 +j    118.9      465.4       0.9668
M1026700                 1      -194.8 +j    -51.6      201.5       0.9667
M1026700                 2       -75.5 +j    -19.8       78.0       0.9673
M1026700                 3      -179.6 +j    -47.5      185.8       0.9668
   TERMINAL TOTAL ............  -449.9 +j   -118.9      465.3       0.9668

ELEMENT = "Line.LN5532741-1"
M1089173                 3        63.1 +j     16.7       65.2       0.9668
   TERMINAL TOTAL ............    63.1 +j     16.7       65.2       0.9668
L2935551                 3       -63.1 +j    -16.7       65.2       0.9667
   TERMINAL TOTAL ............   -63.1 +j    -16.7       65.2       0.9667

ELEMENT = "Line.LN5804803-1"
M1026344                 1         5.4 +j      1.4        5.6       0.9679
   TERMINAL TOTAL ............     5.4 +j      1.4        5.6       0.9679
M1026364                 1        -5.4 +j     -1.4        5.6       0.9662
   TERMINAL TOTAL ............    -5.4 +j     -1.4        5.6       0.9662

ELEMENT = "Line.LN6169248-1"
L2879070                 1       792.2 +j    214.1      820.6       0.9654
L2879070                 2       532.0 +j    145.5      551.5       0.9646
L2879070                 3       326.5 +j     86.4      337.7       0.9667
   TERMINAL TOTAL ............  1650.6 +j    446.0     1709.8       0.9654
L3216345                 1      -791.5 +j   -213.4      819.7       0.9655
L3216345                 2      -531.8 +j   -145.3      551.3       0.9647
L3216345                 3      -326.4 +j    -86.4      337.6       0.9667
   TERMINAL TOTAL ............ -1649.7 +j   -445.1     1708.7       0.9655

ELEMENT = "Line.LN5532786-2"
M1069428                 2        15.8 +j      4.2       16.4       0.9663
   TERMINAL TOTAL ............    15.8 +j      4.2       16.4       0.9663
N1139257                 2       -15.8 +j     -4.2       16.4       0.9663
   TERMINAL TOTAL ............   -15.8 +j     -4.2       16.4       0.9663

ELEMENT = "Line.LN5744339-1"
L2991919                 1       114.5 +j     30.5      118.5       0.9662
   TERMINAL TOTAL ............   114.5 +j     30.5      118.5       0.9662
M1026361                 1      -114.5 +j    -30.5      118.5       0.9662
   TERMINAL TOTAL ............  -114.5 +j    -30.5      118.5       0.9662

ELEMENT = "Line.LN5531255-3"
N1147857                 1       118.1 +j     31.4      122.2       0.9664
   TERMINAL TOTAL ............   118.1 +j     31.4      122.2       0.9664
M1009742                 1      -118.0 +j    -31.4      122.1       0.9664
   TERMINAL TOTAL ............  -118.0 +j    -31.4      122.1       0.9664

ELEMENT = "Line.LN5926308-2"
Q14412                   1       283.4 +j     75.0      293.2       0.9668
Q14412                   2       342.5 +j     92.6      354.8       0.9653
Q14412                   3       137.6 +j     36.1      142.3       0.9672
   TERMINAL TOTAL ............   763.5 +j    203.7      790.2       0.9662
M1047325                 1      -283.3 +j    -74.9      293.1       0.9668
M1047325                 2      -342.4 +j    -92.5      354.7       0.9654
M1047325                 3      -137.6 +j    -36.1      142.3       0.9672
   TERMINAL TOTAL ............  -763.3 +j   -203.6      790.0       0.9662

ELEMENT = "Line.LN5683856-3"
N1139263                 1         9.0 +j      2.4        9.3       0.9660
   TERMINAL TOTAL ............     9.0 +j      2.4        9.3       0.9660
L3048227                 1        -9.0 +j     -2.4        9.3       0.9659
   TERMINAL TOTAL ............    -9.0 +j     -2.4        9.3       0.9659

ELEMENT = "Line.LN6171502-1"
P827506                  1        14.4 +j      3.8       14.9       0.9664
   TERMINAL TOTAL ............    14.4 +j      3.8       14.9       0.9664
M1069469                 1       -14.4 +j     -3.8       14.9       0.9663
   TERMINAL TOTAL ............   -14.4 +j     -3.8       14.9       0.9663

ELEMENT = "Line.LN5593228-1"
M1027019                 2         9.9 +j      2.6       10.2       0.9663
   TERMINAL TOTAL ............     9.9 +j      2.6       10.2       0.9663
L2785522                 2        -9.9 +j     -2.6       10.2       0.9661
   TERMINAL TOTAL ............    -9.9 +j     -2.6       10.2       0.9661

ELEMENT = "Line.LN6380800-1"
L3216338                 2         9.9 +j      2.6       10.2       0.9663
   TERMINAL TOTAL ............     9.9 +j      2.6       10.2       0.9663
L2973146                 2        -9.9 +j     -2.6       10.2       0.9661
   TERMINAL TOTAL ............    -9.9 +j     -2.6       10.2       0.9661

ELEMENT = "Line.LN6199525-2"
M3037452                 1         3.6 +j      1.0        3.7       0.9665
   TERMINAL TOTAL ............     3.6 +j      1.0        3.7       0.9665
L2973164                 1        -3.6 +j     -1.0        3.7       0.9659
   TERMINAL TOTAL ............    -3.6 +j     -1.0        3.7       0.9659

ELEMENT = "Line.LN5772710-2"
L3120376                 1        72.0 +j     19.2       74.5       0.9662
   TERMINAL TOTAL ............    72.0 +j     19.2       74.5       0.9662
M1026925                 1       -72.0 +j    -19.2       74.5       0.9662
   TERMINAL TOTAL ............   -72.0 +j    -19.2       74.5       0.9662

ELEMENT = "Line.LN8961760-1"
M1047612                 3        36.3 +j      9.5       37.5       0.9674
   TERMINAL TOTAL ............    36.3 +j      9.5       37.5       0.9674
P828360                  3       -36.3 +j     -9.5       37.5       0.9674
   TERMINAL TOTAL ............   -36.3 +j     -9.5       37.5       0.9674

ELEMENT = "Line.LN6047556-1"
M1089195                 3        10.3 +j      2.7       10.7       0.9664
   TERMINAL TOTAL ............    10.3 +j      2.7       10.7       0.9664
L3141393                 3       -10.3 +j     -2.8       10.7       0.9661
   TERMINAL TOTAL ............   -10.3 +j     -2.8       10.7       0.9661

ELEMENT = "Line.LN6138603-1"
M1026946                 2        15.8 +j      4.2       16.3       0.9669
   TERMINAL TOTAL ............    15.8 +j      4.2       16.3       0.9669
M1026940                 2       -15.8 +j     -4.2       16.3       0.9666
   TERMINAL TOTAL ............   -15.8 +j     -4.2       16.3       0.9666

ELEMENT = "Line.LN6108139-1"
M1047471                 2         5.9 +j      1.6        6.1       0.9662
   TERMINAL TOTAL ............     5.9 +j      1.6        6.1       0.9662
L3216349                 2        -5.9 +j     -1.6        6.1       0.9661
   TERMINAL TOTAL ............    -5.9 +j     -1.6        6.1       0.9661

ELEMENT = "Line.LN6388581-2"
M1047401                 1         5.4 +j      1.4        5.6       0.9683
   TERMINAL TOTAL ............     5.4 +j      1.4        5.6       0.9683
L2748132                 1        -5.4 +j     -1.4        5.6       0.9680
   TERMINAL TOTAL ............    -5.4 +j     -1.4        5.6       0.9680

ELEMENT = "Line.LN5774460-1"
L3122820                 1         5.4 +j      1.4        5.6       0.9662
   TERMINAL TOTAL ............     5.4 +j      1.4        5.6       0.9662
L3141398                 1        -5.4 +j     -1.4        5.6       0.9659
   TERMINAL TOTAL ............    -5.4 +j     -1.4        5.6       0.9659

ELEMENT = "Line.LN5624387-1"
M1108360                 3        15.5 +j      4.1       16.1       0.9663
   TERMINAL TOTAL ............    15.5 +j      4.1       16.1       0.9663
L3048968                 3       -15.5 +j     -4.1       16.1       0.9662
   TERMINAL TOTAL ............   -15.5 +j     -4.1       16.1       0.9662

ELEMENT = "Line.LN6137087-1"
L2801950                 3        82.7 +j     22.0       85.5       0.9665
   TERMINAL TOTAL ............    82.7 +j     22.0       85.5       0.9665
M1069224                 3       -82.7 +j    -22.0       85.5       0.9665
   TERMINAL TOTAL ............   -82.7 +j    -22.0       85.5       0.9665

ELEMENT = "Line.LN6077809-1"
L2766746                 3       103.4 +j     27.5      107.0       0.9664
   TERMINAL TOTAL ............   103.4 +j     27.5      107.0       0.9664
M1027073                 3      -103.4 +j    -27.5      107.0       0.9664
   TERMINAL TOTAL ............  -103.4 +j    -27.5      107.0       0.9664

ELEMENT = "Line.LN6440079-1"
L2895496                 3        26.8 +j      7.1       27.8       0.9666
   TERMINAL TOTAL ............    26.8 +j      7.1       27.8       0.9666
M1142873                 3       -26.8 +j     -7.1       27.8       0.9665
   TERMINAL TOTAL ............   -26.8 +j     -7.1       27.8       0.9665

ELEMENT = "Line.LN5804794-1"
M1069181                 1        82.0 +j     21.9       84.9       0.9661
   TERMINAL TOTAL ............    82.0 +j     21.9       84.9       0.9661
L2973151                 1       -82.0 +j    -21.9       84.8       0.9661
   TERMINAL TOTAL ............   -82.0 +j    -21.9       84.8       0.9661

ELEMENT = "Line.LN5654484-1"
L3179682                 3        10.3 +j      2.8       10.7       0.9662
   TERMINAL TOTAL ............    10.3 +j      2.8       10.7       0.9662
L2786274                 3       -10.3 +j     -2.8       10.7       0.9661
   TERMINAL TOTAL ............   -10.3 +j     -2.8       10.7       0.9661

ELEMENT = "Line.LN5774465-1"
L3066816                 1        18.1 +j      4.7       18.7       0.9678
   TERMINAL TOTAL ............    18.1 +j      4.7       18.7       0.9678
M1026667                 1       -18.1 +j     -4.7       18.7       0.9676
   TERMINAL TOTAL ............   -18.1 +j     -4.7       18.7       0.9676

ELEMENT = "Line.LN5473349-1"
M1108529                 1      2199.3 +j    268.7     2215.7       0.9926
M1108529                 2      2240.2 +j    319.9     2263.0       0.9900
M1108529                 3      1580.8 +j     29.1     1581.0       0.9998
   TERMINAL TOTAL ............  6020.3 +j    617.7     6051.9       0.9948
M1108532                 1     -2198.7 +j   -268.0     2215.0       0.9927
M1108532                 2     -2239.9 +j   -318.8     2262.5       0.9900
M1108532                 3     -1580.8 +j    -28.8     1581.0       0.9998
   TERMINAL TOTAL ............ -6019.4 +j   -615.6     6050.8       0.9948

ELEMENT = "Line.LN6169253-1"
L2766723                 1         9.0 +j      2.4        9.3       0.9661
   TERMINAL TOTAL ............     9.0 +j      2.4        9.3       0.9661
L3122822                 1        -9.0 +j     -2.4        9.3       0.9660
   TERMINAL TOTAL ............    -9.0 +j     -2.4        9.3       0.9660

ELEMENT = "Line.LN6350536-1"
L2673312                 1         5.4 +j      1.4        5.6       0.9668
   TERMINAL TOTAL ............     5.4 +j      1.4        5.6       0.9668
L3235247                 1        -5.4 +j     -1.4        5.6       0.9659
   TERMINAL TOTAL ............    -5.4 +j     -1.4        5.6       0.9659

ELEMENT = "Line.LN6048523-1"
M1166391                 3       149.0 +j     39.6      154.2       0.9665
   TERMINAL TOTAL ............   149.0 +j     39.6      154.2       0.9665
L3254873                 3      -148.9 +j    -39.5      154.1       0.9665
   TERMINAL TOTAL ............  -148.9 +j    -39.5      154.1       0.9665

ELEMENT = "Line.LN5594152-1"
L2861157                 3       166.3 +j     44.3      172.1       0.9663
   TERMINAL TOTAL ............   166.3 +j     44.3      172.1       0.9663
P901951                  3      -166.2 +j    -44.2      172.0       0.9664
   TERMINAL TOTAL ............  -166.2 +j    -44.2      172.0       0.9664

ELEMENT = "Line.LN5865248-1"
M1047346                 1       333.0 +j     88.1      344.4       0.9668
M1047346                 2       358.4 +j     97.0      371.3       0.9653
M1047346                 3       137.7 +j     36.1      142.4       0.9674
   TERMINAL TOTAL ............   829.1 +j    221.2      858.1       0.9662
M1047345                 1      -332.8 +j    -88.0      344.3       0.9667
M1047345                 2      -358.2 +j    -97.0      371.1       0.9653
M1047345                 3      -137.7 +j    -36.1      142.4       0.9673
   TERMINAL TOTAL ............  -828.8 +j   -221.1      857.8       0.9662

ELEMENT = "Line.LN6046143-1"
L2989596                 2         3.9 +j      1.0        4.1       0.9667
   TERMINAL TOTAL ............     3.9 +j      1.0        4.1       0.9667
L2822873                 2        -3.9 +j     -1.1        4.1       0.9660
   TERMINAL TOTAL ............    -3.9 +j     -1.1        4.1       0.9660

ELEMENT = "Line.LN5803287-1"
M1108328                 3        20.8 +j      5.5       21.5       0.9663
   TERMINAL TOTAL ............    20.8 +j      5.5       21.5       0.9663
L2875754                 3       -20.8 +j     -5.5       21.5       0.9663
   TERMINAL TOTAL ............   -20.8 +j     -5.5       21.5       0.9663

ELEMENT = "Line.LN5589094-1"
L2786204                 3       230.0 +j     61.6      238.1       0.9659
   TERMINAL TOTAL ............   230.0 +j     61.6      238.1       0.9659
M1209819                 3      -229.8 +j    -61.6      237.9       0.9659
   TERMINAL TOTAL ............  -229.8 +j    -61.6      237.9       0.9659

ELEMENT = "Line.LN5954983-1"
P901972                  1       118.0 +j     31.4      122.1       0.9664
   TERMINAL TOTAL ............   118.0 +j     31.4      122.1       0.9664
M1009726                 1      -118.0 +j    -31.4      122.1       0.9664
   TERMINAL TOTAL ............  -118.0 +j    -31.4      122.1       0.9664

ELEMENT = "Line.LN5924696-2"
M1047702                 1         5.4 +j      1.4        5.6       0.9664
   TERMINAL TOTAL ............     5.4 +j      1.4        5.6       0.9664
N1137001                 1        -5.4 +j     -1.4        5.6       0.9661
   TERMINAL TOTAL ............    -5.4 +j     -1.4        5.6       0.9661

ELEMENT = "Line.LN6506311-4"
L2767340                 1        -0.0 +j     -0.0        0.0       0.0232
L2767340                 2        -0.0 +j     -0.0        0.0       0.0484
L2767340                 3         6.2 +j      1.6        6.4       0.9664
   TERMINAL TOTAL ............     6.2 +j      1.6        6.4       0.9664
M3037449                 1         0.0 +j      0.0        0.0       0.9774
M3037449                 2         0.0 +j      0.0        0.0       0.9460
M3037449                 3        -6.2 +j     -1.6        6.4       0.9664
   TERMINAL TOTAL ............    -6.2 +j     -1.6        6.4       0.9664

ELEMENT = "Line.LN5653493-1"
M1047457                 2       117.7 +j     31.3      121.8       0.9664
   TERMINAL TOTAL ............   117.7 +j     31.3      121.8       0.9664
L2710546                 2      -117.7 +j    -31.3      121.8       0.9664
   TERMINAL TOTAL ............  -117.7 +j    -31.3      121.8       0.9664

ELEMENT = "Line.LN5684836-1"
L2674027                 1      2204.1 +j    275.2     2221.2       0.9923
L2674027                 2      2242.7 +j    328.5     2266.6       0.9894
L2674027                 3      1668.7 +j     55.1     1669.6       0.9995
   TERMINAL TOTAL ............  6115.4 +j    658.9     6150.8       0.9942
L2692633                 1     -2202.1 +j   -272.7     2218.9       0.9924
L2692633                 2     -2241.8 +j   -325.2     2265.2       0.9896
L2692633                 3     -1668.7 +j    -54.2     1669.6       0.9995
   TERMINAL TOTAL ............ -6112.6 +j   -652.2     6147.3       0.9944

ELEMENT = "Line.LN5715016-3"
N1142108                 1         5.4 +j      1.4        5.6       0.9663
   TERMINAL TOTAL ............     5.4 +j      1.4        5.6       0.9663
L2674051                 1        -5.4 +j     -1.4        5.6       0.9659
   TERMINAL TOTAL ............    -5.4 +j     -1.4        5.6       0.9659

ELEMENT = "Line.LN6138614-1"
M1069135                 1       352.3 +j   -218.9      414.7      -0.8493
M1069135                 2       359.6 +j   -206.4      414.6      -0.8673
M1069135                 3       169.0 +j   -275.3      323.1      -0.5232
   TERMINAL TOTAL ............   880.9 +j   -700.6     1125.5      -0.7826
R18242                   1      -351.9 +j    219.0      414.5      -0.8490
R18242                   2      -359.2 +j    206.5      414.4      -0.8669
R18242                   3      -168.9 +j    275.4      323.0      -0.5227
   TERMINAL TOTAL ............  -880.0 +j    700.9     1125.0      -0.7822

ELEMENT = "Line.LN6077781-2"
M1047534                 1      1881.7 +j    514.6     1950.8       0.9646
M1047534                 2      1723.8 +j    481.1     1789.7       0.9632
M1047534                 3      1411.1 +j    380.1     1461.4       0.9656
   TERMINAL TOTAL ............  5016.6 +j   1375.8     5201.8       0.9644
N1136663                 1     -1876.9 +j   -510.7     1945.2       0.9649
N1136663                 2     -1720.7 +j   -477.6     1785.8       0.9636
N1136663                 3     -1409.2 +j   -378.4     1459.1       0.9658
   TERMINAL TOTAL ............ -5006.9 +j  -1366.7     5190.0       0.9647

ELEMENT = "Line.LN5675121-1"
M1108508                 3         4.1 +j      1.1        4.3       0.9667
   TERMINAL TOTAL ............     4.1 +j      1.1        4.3       0.9667
L3097861                 3        -4.1 +j     -1.1        4.3       0.9660
   TERMINAL TOTAL ............    -4.1 +j     -1.1        4.3       0.9660

ELEMENT = "Line.LN5773046-1"
M1069560                 2       244.3 +j     65.2      252.8       0.9662
   TERMINAL TOTAL ............   244.3 +j     65.2      252.8       0.9662
M1069567                 2      -244.1 +j    -65.1      252.6       0.9663
   TERMINAL TOTAL ............  -244.1 +j    -65.1      252.6       0.9663

ELEMENT = "Line.LN6380809-2"
L2973153                 1       164.5 +j     43.1      170.1       0.9673
L2973153                 2       507.4 +j    137.8      525.8       0.9650
L2973153                 3        57.9 +j     15.1       59.8       0.9675
   TERMINAL TOTAL ............   729.8 +j    196.1      755.7       0.9658
N1136998                 1      -164.5 +j    -43.1      170.1       0.9673
N1136998                 2      -507.4 +j   -137.8      525.7       0.9651
N1136998                 3       -57.9 +j    -15.1       59.8       0.9675
   TERMINAL TOTAL ............  -729.7 +j   -196.0      755.6       0.9658

ELEMENT = "Line.LN6018326-1"
L2898515                 3        12.4 +j      3.3       12.8       0.9667
   TERMINAL TOTAL ............    12.4 +j      3.3       12.8       0.9667
M1166387                 3       -12.4 +j     -3.3       12.8       0.9665
   TERMINAL TOTAL ............   -12.4 +j     -3.3       12.8       0.9665

ELEMENT = "Line.LN5472356-1"
M1047442                 2         3.9 +j      1.0        4.1       0.9665
   TERMINAL TOTAL ............     3.9 +j      1.0        4.1       0.9665
L3235250                 2        -3.9 +j     -1.1        4.1       0.9660
   TERMINAL TOTAL ............    -3.9 +j     -1.1        4.1       0.9660

ELEMENT = "Line.LN6139641-1"
M1142871                 1      2762.7 +j    527.0     2812.5       0.9823
M1142871                 2      2691.4 +j    592.0     2755.7       0.9766
M1142871                 3      1974.6 +j    171.9     1982.1       0.9962
   TERMINAL TOTAL ............  7428.8 +j   1290.9     7540.1       0.9852
M1142874                 1     -2761.1 +j   -524.8     2810.5       0.9824
M1142874                 2     -2690.7 +j   -589.5     2754.6       0.9768
M1142874                 3     -1974.6 +j   -171.3     1982.0       0.9963
   TERMINAL TOTAL ............ -7426.5 +j  -1285.5     7536.9       0.9853

ELEMENT = "Line.LN6018341-1"
L2955081                 1       713.8 +j   -123.0      724.4      -0.9855
L2955081                 2       823.0 +j    -77.1      826.6      -0.9956
L2955081                 3      1117.1 +j    -17.8     1117.2      -0.9999
   TERMINAL TOTAL ............  2653.9 +j   -217.8     2662.8      -0.9966
M1108315                 1      -713.8 +j    123.3      724.4      -0.9854
M1108315                 2      -822.7 +j     77.4      826.3      -0.9956
M1108315                 3     -1116.7 +j     18.8     1116.9      -0.9999
   TERMINAL TOTAL ............ -2653.2 +j    219.4     2662.3      -0.9966

ELEMENT = "Line.LN6017302-1"
L2973162                 1        14.4 +j      3.8       14.9       0.9671
L2973162                 2       270.4 +j     72.4      279.9       0.9660
L2973162                 3         6.2 +j      1.6        6.4       0.9681
   TERMINAL TOTAL ............   291.0 +j     77.8      301.2       0.9661
M1026333                 1       -14.4 +j     -3.8       14.9       0.9669
M1026333                 2      -270.2 +j    -72.3      279.7       0.9660
M1026333                 3        -6.2 +j     -1.6        6.4       0.9677
   TERMINAL TOTAL ............  -290.8 +j    -77.7      301.0       0.9661

ELEMENT = "Line.LN6199505-1"
M1009832                 2         3.9 +j      1.0        4.1       0.9663
   TERMINAL TOTAL ............     3.9 +j      1.0        4.1       0.9663
L2860479                 2        -3.9 +j     -1.1        4.1       0.9660
   TERMINAL TOTAL ............    -3.9 +j     -1.1        4.1       0.9660

ELEMENT = "Line.LN5682327-1"
M1026854                 1       136.1 +j     36.3      140.8       0.9662
   TERMINAL TOTAL ............   136.1 +j     36.3      140.8       0.9662
P901894                  1      -136.1 +j    -36.3      140.8       0.9662
   TERMINAL TOTAL ............  -136.1 +j    -36.3      140.8       0.9662

ELEMENT = "Line.LN6290243-1"
M1026485                 2        19.9 +j      5.3       20.6       0.9665
   TERMINAL TOTAL ............    19.9 +j      5.3       20.6       0.9665
M1026492                 2       -19.9 +j     -5.3       20.6       0.9664
   TERMINAL TOTAL ............   -19.9 +j     -5.3       20.6       0.9664

ELEMENT = "Line.X8223_48332_SW"
D6413567-3_INT           1       560.4 +j   -164.6      584.1      -0.9595
D6413567-3_INT           2       604.1 +j   -138.9      619.9      -0.9746
D6413567-3_INT           3       219.8 +j   -261.0      341.2      -0.6441
   TERMINAL TOTAL ............  1384.3 +j   -564.5     1494.9      -0.9260
E182724                  1      -560.4 +j    164.6      584.1      -0.9595
E182724                  2      -604.1 +j    138.9      619.9      -0.9746
E182724                  3      -219.8 +j    261.0      341.2      -0.6441
   TERMINAL TOTAL ............ -1384.2 +j    564.5     1494.9      -0.9260

ELEMENT = "Line.LN6413567-3"
N1139541                 1       560.6 +j   -164.6      584.2      -0.9595
N1139541                 2       604.3 +j   -138.8      620.0      -0.9746
N1139541                 3       219.8 +j   -261.0      341.2      -0.6442
   TERMINAL TOTAL ............  1384.6 +j   -564.4     1495.2      -0.9260
D6413567-3_INT           1      -560.4 +j    164.6      584.1      -0.9595
D6413567-3_INT           2      -604.1 +j    138.9      619.9      -0.9746
D6413567-3_INT           3      -219.8 +j    261.0      341.2      -0.6441
   TERMINAL TOTAL ............ -1384.3 +j    564.5     1494.9      -0.9260

ELEMENT = "Line.LN5591731-3"
M4122658                 1      2388.6 +j    349.6     2414.0       0.9895
M4122658                 2      2276.5 +j    372.5     2306.8       0.9869
M4122658                 3      1687.2 +j     69.5     1688.7       0.9992
   TERMINAL TOTAL ............  6352.3 +j    791.6     6401.4       0.9923
L2933135                 1     -2388.5 +j   -349.5     2414.0       0.9895
L2933135                 2     -2276.5 +j   -372.4     2306.7       0.9869
L2933135                 3     -1687.2 +j    -69.5     1688.7       0.9992
   TERMINAL TOTAL ............ -6352.2 +j   -791.4     6401.3       0.9923

ELEMENT = "Line.LN5653470-1"
M1026702                 1         9.0 +j      2.4        9.3       0.9662
M1026702                 2         9.9 +j      2.6       10.2       0.9663
M1026702                 3        10.3 +j      2.7       10.7       0.9664
   TERMINAL TOTAL ............    29.2 +j      7.8       30.2       0.9663
L2729414                 1        -9.0 +j     -2.4        9.3       0.9659
L2729414                 2        -9.9 +j     -2.6       10.2       0.9660
L2729414                 3       -10.3 +j     -2.8       10.7       0.9661
   TERMINAL TOTAL ............   -29.2 +j     -7.8       30.2       0.9660

ELEMENT = "Line.LN6017316-1"
L2729430                 2       243.1 +j     64.8      251.6       0.9662
   TERMINAL TOTAL ............   243.1 +j     64.8      251.6       0.9662
L2766742                 2      -242.9 +j    -64.7      251.4       0.9663
   TERMINAL TOTAL ............  -242.9 +j    -64.7      251.4       0.9663

ELEMENT = "Line.LN5926299-1"
M1026972                 2        19.8 +j      5.3       20.5       0.9663
   TERMINAL TOTAL ............    19.8 +j      5.3       20.5       0.9663
L2860483                 2       -19.8 +j     -5.3       20.5       0.9662
   TERMINAL TOTAL ............   -19.8 +j     -5.3       20.5       0.9662

ELEMENT = "Line.LN5683831-1"
L2860490                 1       333.4 +j     88.2      344.9       0.9668
L2860490                 2       358.8 +j     97.2      371.7       0.9652
L2860490                 3       168.8 +j     44.3      174.5       0.9672
   TERMINAL TOTAL ............   861.0 +j    229.7      891.1       0.9662
L3104134                 1      -333.2 +j    -88.1      344.6       0.9668
L3104134                 2      -358.6 +j    -97.1      371.5       0.9652
L3104134                 3      -168.7 +j    -44.3      174.5       0.9672
   TERMINAL TOTAL ............  -860.5 +j   -229.5      890.6       0.9662

ELEMENT = "Line.LN6352700-1"
M1089144                 1        36.0 +j      9.6       37.2       0.9665
   TERMINAL TOTAL ............    36.0 +j      9.6       37.2       0.9665
P827522                  1       -36.0 +j     -9.6       37.2       0.9665
   TERMINAL TOTAL ............   -36.0 +j     -9.6       37.2       0.9665

ELEMENT = "Line.LN6047570-1"
M1089118                 1         5.4 +j      1.4        5.6       0.9660
   TERMINAL TOTAL ............     5.4 +j      1.4        5.6       0.9660
L3048208                 1        -5.4 +j     -1.4        5.6       0.9657
   TERMINAL TOTAL ............    -5.4 +j     -1.4        5.6       0.9657

ELEMENT = "Line.LN5624342-1"
M1108505                 1      2218.3 +j    284.3     2236.4       0.9919
M1108505                 2      2269.8 +j    344.0     2295.8       0.9887
M1108505                 3      1668.6 +j     57.5     1669.6       0.9994
   TERMINAL TOTAL ............  6156.8 +j    685.8     6194.8       0.9939
L2955047                 1     -2216.7 +j   -282.3     2234.6       0.9920
L2955047                 2     -2269.1 +j   -341.3     2294.6       0.9889
L2955047                 3     -1668.6 +j    -56.8     1669.6       0.9994
   TERMINAL TOTAL ............ -6154.4 +j   -680.4     6191.9       0.9939

ELEMENT = "Line.LN6259992-1"
M1089148                 1         9.0 +j      2.4        9.3       0.9662
   TERMINAL TOTAL ............     9.0 +j      2.4        9.3       0.9662
L2766721                 1        -9.0 +j     -2.4        9.3       0.9660
   TERMINAL TOTAL ............    -9.0 +j     -2.4        9.3       0.9660

ELEMENT = "Line.LN5841919-1"
M1026745                 2         5.9 +j      1.6        6.1       0.9665
   TERMINAL TOTAL ............     5.9 +j      1.6        6.1       0.9665
L3029183                 2        -5.9 +j     -1.6        6.1       0.9661
   TERMINAL TOTAL ............    -5.9 +j     -1.6        6.1       0.9661

ELEMENT = "Line.LN6380811-1"
L2710512                 2       112.9 +j     29.9      116.8       0.9666
   TERMINAL TOTAL ............   112.9 +j     29.9      116.8       0.9666
M1047828                 2      -112.8 +j    -29.9      116.7       0.9666
   TERMINAL TOTAL ............  -112.8 +j    -29.9      116.7       0.9666

ELEMENT = "Line.LN5683832-1"
M1047342                 1         9.0 +j      2.4        9.3       0.9662
   TERMINAL TOTAL ............     9.0 +j      2.4        9.3       0.9662
L3197645                 1        -9.0 +j     -2.4        9.3       0.9659
   TERMINAL TOTAL ............    -9.0 +j     -2.4        9.3       0.9659

ELEMENT = "Line.LN6077778-1"
M1069192                 1         9.0 +j      2.4        9.3       0.9661
   TERMINAL TOTAL ............     9.0 +j      2.4        9.3       0.9661
L3235253                 1        -9.0 +j     -2.4        9.3       0.9658
   TERMINAL TOTAL ............    -9.0 +j     -2.4        9.3       0.9658

ELEMENT = "Line.LN5561442-2"
L3214071                 1      2724.1 +j    490.4     2767.9       0.9842
L3214071                 2      2681.6 +j    551.9     2737.8       0.9795
L3214071                 3      1937.4 +j    152.1     1943.4       0.9969
   TERMINAL TOTAL ............  7343.1 +j   1194.5     7439.6       0.9870
M1125952                 1     -2721.8 +j   -487.4     2765.1       0.9843
M1125952                 2     -2680.6 +j   -548.2     2736.1       0.9797
M1125952                 3     -1937.5 +j   -151.2     1943.3       0.9970
   TERMINAL TOTAL ............ -7339.9 +j  -1186.9     7435.3       0.9872

ELEMENT = "Line.LN6259983-1"
M1027101                 2         9.9 +j      2.6       10.2       0.9666
   TERMINAL TOTAL ............     9.9 +j      2.6       10.2       0.9666
L2860480                 2        -9.9 +j     -2.6       10.2       0.9661
   TERMINAL TOTAL ............    -9.9 +j     -2.6       10.2       0.9661

ELEMENT = "Line.LN5865244-1"
L2710517                 1       110.9 +j     29.4      114.8       0.9666
   TERMINAL TOTAL ............   110.9 +j     29.4      114.8       0.9666
M1026646                 1      -110.9 +j    -29.4      114.7       0.9666
   TERMINAL TOTAL ............  -110.9 +j    -29.4      114.7       0.9666

ELEMENT = "Line.LN6350555-1"
M1069662                 2         5.9 +j      1.6        6.1       0.9664
   TERMINAL TOTAL ............     5.9 +j      1.6        6.1       0.9664
L2935547                 2        -5.9 +j     -1.6        6.1       0.9660
   TERMINAL TOTAL ............    -5.9 +j     -1.6        6.1       0.9660

ELEMENT = "Line.LN5714039-1"
M1026931                 1        39.6 +j     10.6       40.9       0.9662
   TERMINAL TOTAL ............    39.6 +j     10.6       40.9       0.9662
L3216336                 1       -39.6 +j    -10.6       40.9       0.9662
   TERMINAL TOTAL ............   -39.6 +j    -10.6       40.9       0.9662

ELEMENT = "Line.LN5889821-1"
L3142049                 1      2333.8 +j    324.6     2356.3       0.9905
L3142049                 2      2273.1 +j    357.9     2301.1       0.9878
L3142049                 3      1672.7 +j     62.0     1673.9       0.9993
   TERMINAL TOTAL ............  6279.7 +j    744.5     6323.6       0.9930
M1108493                 1     -2331.1 +j   -321.0     2353.1       0.9907
M1108493                 2     -2272.1 +j   -353.7     2299.5       0.9881
M1108493                 3     -1672.7 +j    -61.0     1673.8       0.9993
   TERMINAL TOTAL ............ -6275.9 +j   -735.6     6318.9       0.9932

ELEMENT = "Line.LN5804791-1"
M1069169                 1       425.1 +j   -200.7      470.0      -0.9043
M1069169                 2       603.1 +j   -139.4      619.0      -0.9743
M1069169                 3       219.6 +j   -261.1      341.2      -0.6436
   TERMINAL TOTAL ............  1247.7 +j   -601.2     1385.0      -0.9009
L3010556                 1      -424.6 +j    200.7      469.6      -0.9040
L3010556                 2      -602.3 +j    139.8      618.3      -0.9741
L3010556                 3      -219.4 +j    261.2      341.1      -0.6432
   TERMINAL TOTAL ............ -1246.2 +j    601.7     1383.9      -0.9005

ELEMENT = "Line.LN5653486-1"
L2991933                 3        31.1 +j      8.3       32.2       0.9664
   TERMINAL TOTAL ............    31.1 +j      8.3       32.2       0.9664
L3122837                 3       -31.1 +j     -8.3       32.2       0.9663
   TERMINAL TOTAL ............   -31.1 +j     -8.3       32.2       0.9663

ELEMENT = "Line.LN5926286-1"
L3216336                 1        30.6 +j      8.1       31.6       0.9662
   TERMINAL TOTAL ............    30.6 +j      8.1       31.6       0.9662
L2691936                 1       -30.6 +j     -8.2       31.6       0.9662
   TERMINAL TOTAL ............   -30.6 +j     -8.2       31.6       0.9662

ELEMENT = "Line.LN6318859-1"
L2897772                 1        -0.0 +j     -0.0        0.0       0.0000
   TERMINAL TOTAL ............    -0.0 +j     -0.0        0.0       0.0000
L3101814                 1         0.0 +j      0.0        0.0       0.6510
   TERMINAL TOTAL ............     0.0 +j      0.0        0.0       0.6510

ELEMENT = "Line.LN5926316-1"
L2766732                 2        80.0 +j     21.4       82.8       0.9661
   TERMINAL TOTAL ............    80.0 +j     21.4       82.8       0.9661
M1026485                 2       -80.0 +j    -21.4       82.8       0.9661
   TERMINAL TOTAL ............   -80.0 +j    -21.4       82.8       0.9661

ELEMENT = "Line.LN5591703-1"
L2804269                 2        17.8 +j      4.7       18.4       0.9665
   TERMINAL TOTAL ............    17.8 +j      4.7       18.4       0.9665
L2989564                 2       -17.8 +j     -4.7       18.4       0.9664
   TERMINAL TOTAL ............   -17.8 +j     -4.7       18.4       0.9664

ELEMENT = "Line.LN5531333-1"
M1126016                 1        36.1 +j      9.6       37.4       0.9666
   TERMINAL TOTAL ............    36.1 +j      9.6       37.4       0.9666
L3120534                 1       -36.1 +j     -9.6       37.4       0.9666
   TERMINAL TOTAL ............   -36.1 +j     -9.6       37.4       0.9666

ELEMENT = "Line.LN6047581-1"
M1026330                 2         5.9 +j      1.6        6.1       0.9662
   TERMINAL TOTAL ............     5.9 +j      1.6        6.1       0.9662
L2766726                 2        -5.9 +j     -1.6        6.1       0.9661
   TERMINAL TOTAL ............    -5.9 +j     -1.6        6.1       0.9661

ELEMENT = "Line.LN6349077-1"
P901912                  2        -0.0 +j     -0.0        0.0       0.0000
   TERMINAL TOTAL ............    -0.0 +j     -0.0        0.0       0.0000
L3195365                 2         0.0 +j     -0.0        0.0      -0.2371
   TERMINAL TOTAL ............     0.0 +j     -0.0        0.0      -0.2371

ELEMENT = "Line.LN6350574-1"
M1108381                 1        63.2 +j     16.7       65.4       0.9670
M1108381                 2        65.5 +j     17.2       67.7       0.9671
M1108381                 3        62.2 +j     16.3       64.3       0.9672
   TERMINAL TOTAL ............   190.9 +j     50.2      197.4       0.9671
L3254237                 1       -63.2 +j    -16.7       65.4       0.9670
L3254237                 2       -65.4 +j    -17.2       67.7       0.9671
L3254237                 3       -62.2 +j    -16.4       64.3       0.9671
   TERMINAL TOTAL ............  -190.8 +j    -50.3      197.4       0.9670

ELEMENT = "Line.LN6320343-1"
L2804262                 1       121.7 +j     32.4      125.9       0.9663
   TERMINAL TOTAL ............   121.7 +j     32.4      125.9       0.9663
L2841639                 1      -121.6 +j    -32.4      125.9       0.9663
   TERMINAL TOTAL ............  -121.6 +j    -32.4      125.9       0.9663

ELEMENT = "Line.LN81048100-5"
N1230123                 2       184.9 +j     48.6      191.2       0.9671
   TERMINAL TOTAL ............   184.9 +j     48.6      191.2       0.9671
L2708744                 2      -184.8 +j    -48.6      191.1       0.9671
   TERMINAL TOTAL ............  -184.8 +j    -48.6      191.1       0.9671

ELEMENT = "Line.LN6348946-1"
M1069519                 2         9.9 +j      2.6       10.2       0.9662
   TERMINAL TOTAL ............     9.9 +j      2.6       10.2       0.9662
P901927                  2        -9.9 +j     -2.6       10.2       0.9662
...